5026354688||Lavori di messa in sicurezza permanente del sito GR57 - Area silo di stoccaggio della pirite - Incarico per Direzione Lavori e CSE||01-PROCEDURA APERTA||02061230500||Tea Engineering srl||35000.00||2016_80001830530
5026354688||Lavori di messa in sicurezza permanente del sito GR57 - Area silo di stoccaggio della pirite - Incarico per Direzione Lavori e CSE||01-PROCEDURA APERTA||02061230500||Tea Engineering srl||35000.00||2016_80001830530
Z8713D1423||partecipazione al corso di formazione di base per l\'utilizzo del codice MODFLOW||23-AFFIDAMENTO IN ECONOMIA - AFFIDAMENTO DIRETTO||02061230500||TEA ENGINEERING SRL||450.00||2016_94017380273
5026354688||Lavori di messa in sicurezza permanente del sito GR57 - Area silo di stoccaggio della pirite - Incarico per Direzione Lavori e CSE||01-PROCEDURA APERTA||02061230500||Tea Engineering srl||35000.00||2015_80001830530
